Circuit: * C:\Users\MAHADEVAN\Documents\VLSI_Project\VLSI_PROJECT\Static Power\NAND\conventional nand.asc

.OP point found by inspection.

res1: 1.8*(i(vdd))=-2.95392e-008 at 1.8


Date: Sun Mar 15 22:14:29 2020
Total elapsed time: 0.111 seconds.

tnom = 27
temp = 27
method = trap
totiter = 27
traniter = 0
tranpoints = 0
accept = 0
rejected = 0
matrix size = 24
fillins = 0
solver = Normal
Matrix Compiler1: 2.18 KB object code size
Matrix Compiler2: 2.69 KB object code size
