Circuit: * C:\Users\MAHADEVAN\Documents\VLSI_Project\VLSI_PROJECT\Static Power\NAND\Draft1.asc


res1: 1.8*(i(vdd))=-2.5974e-008 at 1.8


Date: Sun Mar 15 22:14:24 2020
Total elapsed time: 0.156 seconds.

tnom = 27
temp = 27
method = trap
totiter = 55
traniter = 0
tranpoints = 0
accept = 0
rejected = 0
matrix size = 26
fillins = 0
solver = Normal
Matrix Compiler1: 2.28 KB object code size
Matrix Compiler2: 2.93 KB object code size
