Circuit: * F:\VLSI_PROJECT\Transient\conv-trans.asc

Direct Newton iteration for .op point succeeded.

Date: Sun Mar 15 15:52:44 2020
Total elapsed time: 0.375 seconds.

tnom = 27
temp = 27
method = modified trap
totiter = 2821
traniter = 2815
tranpoints = 1240
accept = 1190
rejected = 50
matrix size = 13
fillins = 0
solver = Normal
Matrix Compiler1: 960 bytes object code size  0.6/0.3/[0.2]
Matrix Compiler2: off  [0.3]/0.3/0.4

