Circuit: * F:\VLSI_PROJECT\Static Power\statpowerconventional@0.asc

.OP point found by inspection.

res1: 1.8*i(v2)=0 at 0


Date: Sun Mar 15 16:20:04 2020
Total elapsed time: 0.171 seconds.

tnom = 27
temp = 27
method = trap
totiter = 363
traniter = 0
tranpoints = 0
accept = 0
rejected = 0
matrix size = 13
fillins = 0
solver = Normal
Matrix Compiler1: 996 bytes object code size  0.6/0.3/[0.2]
Matrix Compiler2: 1.30 KB object code size  0.3/0.4/[0.2]

