Circuit: * F:\VLSI_PROJECT\Static Power\staticpowerproposed@0.asc


res1: 1.8*(i(v2))=-1.07173e-008 at 0


Date: Sun Mar 15 17:03:50 2020
Total elapsed time: 0.187 seconds.

tnom = 27
temp = 27
method = trap
totiter = 414
traniter = 0
tranpoints = 0
accept = 0
rejected = 0
matrix size = 22
fillins = 0
solver = Normal
Matrix Compiler1: 2.52 KB object code size  1.4/0.9/[0.4]
Matrix Compiler2: off  [0.8]/1.1/1.8

